Circuit: * C:\users\kazuma\My Documents\MyLTspiceLib\Blender.asc

Vr2_r1: both pins shorted together -- ignoring.
WARNING: Node N011 is floating.

Early termination of direct N-R iteration.
Direct Newton iteration failed to find .op point.  (Use ".option noopiter" to skip.)
Starting Gmin stepping
Gmin = 10
vernier = 0.5
vernier = 0.25
vernier = 0.125
Gmin = 5.5165
vernier = 0.0625
vernier = 0.03125
vernier = 0.015625
vernier = 0.0078125
Gmin = 5.49501
vernier = 0.00390625
vernier = 0.00195313
vernier = 0.000976563
vernier = 0.000488281
Gmin = 5.50104
Gmin = 0
Gmin stepping succeeded in finding the operating point.


Date: Wed Oct 21 04:48:24 2020
Total elapsed time: 0.109 seconds.

tnom = 27
temp = 27
method = trap
totiter = 1500
traniter = 0
tranpoints = 0
accept = 0
rejected = 0
matrix size = 64
fillins = 213
solver = Normal
Matrix Compiler1:     791 opcodes
Matrix Compiler2: 8.85 KB object code size  1.4/1.4/[0.7]

