Circuit: * C:\users\kazuma\My Documents\MyLTspiceLib\OD1.asc

Direct Newton iteration for .op point succeeded.

Date: Tue Oct 27 19:25:37 2020
Total elapsed time: 0.144 seconds.

tnom = 27
temp = 27
method = modified trap
totiter = 13928
traniter = 13899
tranpoints = 5335
accept = 3615
rejected = 1720
matrix size = 32
fillins = 50
solver = Normal
Matrix Compiler1: 4.16 KB object code size  0.9/0.6/[0.5]
Matrix Compiler2: 3.47 KB object code size  0.5/0.6/[0.5]

